FoamFile
{
    version     2.0;
    format      ascii;
    class       dictionary;
    object      snappyHexMeshDict;
}
// * * * * * * * * * * * * * * * * * * * * * * * * * * * * * * * * * * * * * //

castellatedMesh true;
snap            true;
addLayers       false;

geometry
{
    sphere
    {
        type   searchableSphere;
        centre (0.45 0.45 0.45);
        radius 0.15;
    }
}

castellatedMeshControls
{
    maxLocalCells 2000000;
    maxGlobalCells 4000000;
    minRefinementCells 4;
    maxLoadUnbalance 0.1;
    nCellsBetweenLevels 2;

    features
    (
    );

    refinementSurfaces
    {
        sphere
        {
            level (2 3);
            patchInfo
            {
                type wall;
            }
        }
    }

    resolveFeatureAngle 30;

    refinementRegions
    {
    }

    locationInMesh (0.05 0.05 0.05);

    allowFreeStandingZoneFaces true;
}

snapControls
{
    nSmoothPatch 3;
    tolerance    2.0;
    nSolveIter   30;
    nRelaxIter   5;
}

addLayersControls
{
    relativeSizes true;
    layers
    {
    }
    expansionRatio 1.0;
    finalLayerThickness 0.3;
    minThickness 0.1;
    nGrow 0;
    featureAngle 60;
    slipFeatureAngle 30;
    nRelaxIter 3;
    nSmoothSurfaceNormals 1;
    nSmoothNormals 3;
    nSmoothThickness 10;
    maxFaceThicknessRatio 0.5;
    maxThicknessToMedialRatio 0.3;
    minMedianAxisAngle 90;
    nBufferCellsNoExtrude 0;
    nLayerIter 50;
}

meshQualityControls
{
    maxNonOrtho 65;
    maxBoundarySkewness 20;
    maxInternalSkewness 4;
    maxConcave 80;
    minVol 1e-13;
    minTetQuality 1e-30;
    minArea -1;
    minTwist 0.02;
    minDeterminant 0.001;
    minFaceWeight 0.02;
    minVolRatio 0.01;
    minTriangleTwist -1;
    nSmoothScale 4;
    errorReduction 0.75;
}

mergeTolerance 1e-6;

// ************************************************************************* //
